<?xml version="1.0" encoding="UTF-8"?>

<!-- generated on 2025-12-15 18:05:44 by Eclipse SUMO netconvert Version 1.23.1
<netconvertConfiguration xmlns:xsi="http://www.w3.org/2001/XMLSchema-instance" xsi:noNamespaceSchemaLocation="http://sumo.dlr.de/xsd/netconvertConfiguration.xsd">

    <input>
        <sumo-net-file value="symaps.net.xml"/>
    </input>

    <output>
        <output-file value="symaps_humanway.net.xml"/>
        <output.street-names value="true"/>
    </output>

    <processing>
        <geometry.min-radius.fix.railways value="false"/>
        <geometry.avoid-overlap value="false"/>
        <geometry.max-grade.fix value="false"/>
        <offset.disable-normalization value="true"/>
        <lefthand value="0"/>
    </processing>

    <edge_removal>
        <keep-edges.by-vclass value="pedestrian"/>
    </edge_removal>

    <junctions>
        <no-turnarounds value="true"/>
        <junctions.corner-detail value="5"/>
        <junctions.limit-turn-speed value="5.50"/>
        <rectangular-lane-cut value="0"/>
    </junctions>

    <pedestrian>
        <walkingareas value="1"/>
    </pedestrian>

</netconvertConfiguration>
-->

<net version="1.20" junctionCornerDetail="5" walkingareas="true" limitTurnSpeed="5.50" avoidOverlap="0" xmlns:xsi="http://www.w3.org/2001/XMLSchema-instance" xsi:noNamespaceSchemaLocation="http://sumo.dlr.de/xsd/net_file.xsd">

    <location netOffset="-118115.16,-6339935.64" convBoundary="0.00,0.00,2290.99,1128.16" origBoundary="1.061047,49.382038,1.081627,49.388635" projParameter="+proj=merc +a=6378137 +b=6378137 +lat_ts=0.0 +lon_0=0.0 +x_0=0.0 +y_0=0 +k=1.0 +units=m +nadgrids=@null +wktext +no_defs"/>

    <type id="highway.cycleway" priority="1" numLanes="1" speed="5.56" allow="bicycle" oneway="0" width="2.00"/>
    <type id="highway.footway" priority="1" numLanes="1" speed="2.78" allow="pedestrian" oneway="1" width="2.00"/>
    <type id="highway.path" priority="1" numLanes="1" speed="5.56" allow="pedestrian bicycle" oneway="0" width="2.00"/>
    <type id="highway.pedestrian" priority="1" numLanes="1" speed="2.78" allow="pedestrian" oneway="1" width="2.00"/>
    <type id="highway.service" priority="1" numLanes="1" speed="5.56" allow="pedestrian delivery bicycle" oneway="0"/>
    <type id="highway.steps" priority="1" numLanes="1" speed="1.39" allow="pedestrian" oneway="1" width="2.00"/>
    <type id="highway.tertiary" priority="10" numLanes="1" speed="13.89" disallow="pedestrian tram rail_urban rail rail_electric rail_fast ship container cable_car subway aircraft wheelchair scooter drone" oneway="0" sidewalkWidth="3.00"/>

    <edge id=":10675013082_0" function="internal">
        <lane id=":10675013082_0_0" index="0" allow="pedestrian bicycle" speed="5.56" length="0.30" width="2.00" shape="2224.89,579.69 2224.71,579.45"/>
    </edge>
    <edge id=":10710011966_w0" function="walkingarea">
        <lane id=":10710011966_w0_0" index="0" allow="pedestrian" speed="2.78" length="0.20" width="2.00" shape="1136.92,560.54 1135.02,559.91 1134.97,560.06 1136.84,560.77"/>
    </edge>
    <edge id=":11206273096_0" function="internal">
        <lane id=":11206273096_0_0" index="0" allow="pedestrian delivery bicycle" speed="3.65" length="4.67" shape="2045.16,937.95 2045.25,936.51 2045.74,935.77 2046.63,935.71 2047.92,936.35"/>
    </edge>
    <edge id=":11206273098_0" function="internal">
        <lane id=":11206273098_0_0" index="0" allow="pedestrian delivery bicycle" speed="3.65" length="4.67" shape="2152.93,1117.90 2152.83,1119.34 2152.33,1120.08 2151.44,1120.13 2150.15,1119.48"/>
    </edge>
    <edge id=":11492254552_0" function="internal">
        <lane id=":11492254552_0_0" index="0" allow="pedestrian delivery bicycle" speed="4.88" length="5.22" shape="1380.66,158.03 1379.88,156.78 1378.93,156.16 1377.78,156.17 1376.46,156.79"/>
    </edge>
    <edge id=":11492254552_1" function="internal">
        <lane id=":11492254552_1_0" index="0" allow="pedestrian delivery bicycle" speed="5.56" length="10.29" shape="1380.66,158.03 1379.78,155.17 1379.81,152.70 1380.75,150.60 1382.60,148.88"/>
    </edge>
    <edge id=":11492254552_2" function="internal">
        <lane id=":11492254552_2_0" index="0" allow="pedestrian delivery bicycle" speed="3.65" length="4.67" shape="1380.66,158.03 1380.91,156.61 1381.48,155.92 1382.37,155.96 1383.59,156.74"/>
    </edge>
    <edge id=":11492254552_3" function="internal">
        <lane id=":11492254552_3_0" index="0" allow="pedestrian delivery bicycle" speed="5.56" length="5.76" shape="1384.37,151.54 1383.43,152.46 1382.99,153.63 1383.04,155.06 1383.59,156.74"/>
    </edge>
    <edge id=":11492254552_4" function="internal">
        <lane id=":11492254552_4_0" index="0" allow="pedestrian delivery bicycle" speed="5.56" length="9.49" shape="1384.37,151.54 1376.46,156.79"/>
    </edge>
    <edge id=":11492254552_5" function="internal">
        <lane id=":11492254552_5_0" index="0" allow="pedestrian delivery bicycle" speed="3.65" length="4.67" shape="1384.37,151.54 1382.93,151.54 1382.15,151.10 1382.04,150.21 1382.60,148.88"/>
    </edge>
    <edge id=":11492254552_6" function="internal">
        <lane id=":11492254552_6_0" index="0" allow="pedestrian delivery bicycle" speed="5.56" length="9.49" shape="1374.69,154.13 1382.60,148.88"/>
    </edge>
    <edge id=":11492254552_7" function="internal">
        <lane id=":11492254552_7_0" index="0" allow="pedestrian delivery bicycle" speed="5.56" length="11.05" shape="1374.69,154.13 1377.49,152.80 1379.91,152.79 1381.95,154.10 1383.59,156.74"/>
    </edge>
    <edge id=":11492254552_8" function="internal">
        <lane id=":11492254552_8_0" index="0" allow="pedestrian delivery bicycle" speed="3.65" length="4.67" shape="1374.69,154.13 1376.13,154.13 1376.91,154.58 1377.02,155.46 1376.46,156.79"/>
    </edge>
    <edge id=":11492254552_w0" function="walkingarea">
        <lane id=":11492254552_w0_0" index="0" allow="pedestrian" speed="2.78" length="7.10" width="6.40" shape="1379.20,158.67 1385.05,156.09 1384.61,154.67 1384.58,154.09 1384.68,153.60 1384.90,153.20 1385.25,152.88 1381.71,147.54 1373.80,152.80 1377.34,158.13 1378.10,157.82 1378.43,157.85 1378.72,158.00 1378.98,158.27"/>
    </edge>
    <edge id=":11492254553_0" function="internal">
        <lane id=":11492254553_0_0" index="0" allow="pedestrian delivery bicycle" speed="3.65" length="4.67" shape="1390.88,173.31 1390.64,174.73 1390.06,175.41 1389.17,175.37 1387.96,174.59"/>
    </edge>
    <edge id=":11572241984_0" function="internal">
        <lane id=":11572241984_0_0" index="0" allow="pedestrian bicycle" speed="2.89" length="2.92" width="2.00" shape="2263.46,0.65 2264.05,-0.04 2264.57,-0.22 2265.04,0.09 2265.44,0.89"/>
    </edge>
    <edge id=":11572241986_0" function="internal">
        <lane id=":11572241986_0_0" index="0" allow="pedestrian bicycle" speed="5.56" length="17.21" width="2.00" shape="2262.22,16.46 2246.48,23.41"/>
    </edge>
    <edge id=":11572241986_1" function="internal">
        <lane id=":11572241986_1_0" index="0" allow="pedestrian bicycle" speed="4.64" length="8.85" width="2.00" shape="2262.22,16.46 2259.95,16.54 2258.31,15.15 2257.78,13.07 2258.85,11.06"/>
    </edge>
    <edge id=":11572241986_2" function="internal">
        <lane id=":11572241986_2_0" index="0" allow="pedestrian bicycle" speed="2.89" length="2.92" width="2.00" shape="2262.22,16.46 2261.33,16.30 2260.90,15.95 2260.93,15.39 2261.41,14.63"/>
    </edge>
    <edge id=":11572241986_3" function="internal">
        <lane id=":11572241986_3_0" index="0" allow="pedestrian bicycle" speed="4.63" length="8.81" width="2.00" shape="2260.14,12.59 2257.79,14.76 2257.23,15.83 2258.43,15.78 2261.41,14.63"/>
    </edge>
    <edge id=":11572241986_4" function="internal">
        <lane id=":11572241986_4_0" index="0" allow="pedestrian bicycle" speed="5.56" length="17.48" width="2.00" shape="2260.14,12.59 2257.04,15.35 2253.59,18.45 2250.01,21.32 2246.48,23.41"/>
    </edge>
    <edge id=":11572241986_5" function="internal">
        <lane id=":11572241986_5_0" index="0" allow="pedestrian bicycle" speed="2.89" length="2.92" width="2.00" shape="2260.14,12.59 2259.24,12.69 2258.73,12.47 2258.60,11.92 2258.85,11.06"/>
    </edge>
    <edge id=":11572241986_6" function="internal">
        <lane id=":11572241986_6_0" index="0" allow="pedestrian bicycle" speed="5.56" length="16.92" width="2.00" shape="2245.67,21.58 2249.12,19.54 2252.54,16.77 2255.82,13.78 2258.85,11.06"/>
    </edge>
    <edge id=":11572241986_7" function="internal">
        <lane id=":11572241986_7_0" index="0" allow="pedestrian bicycle" speed="5.56" length="17.21" width="2.00" shape="2245.67,21.58 2261.41,14.63"/>
    </edge>
    <edge id=":11572241986_8" function="internal">
        <lane id=":11572241986_8_0" index="0" allow="pedestrian bicycle" speed="2.89" length="2.92" width="2.00" shape="2245.67,21.58 2246.56,21.73 2246.99,22.09 2246.96,22.65 2246.48,23.41"/>
    </edge>
    <edge id=":11572241986_w0" function="walkingarea">
        <lane id=":11572241986_w0_0" index="0" allow="pedestrian" speed="2.78" length="10.76" width="4.00" shape="2262.63,17.37 2261.01,13.71 2260.78,13.35 2258.20,10.29 2255.57,12.69 2253.72,14.61 2252.20,16.23 2250.58,17.67 2248.42,19.10 2245.27,20.66 2246.88,24.32"/>
    </edge>
    <edge id=":11572522414_0" function="internal">
        <lane id=":11572522414_0_0" index="0" allow="pedestrian bicycle" speed="3.57" length="3.84" width="1.00" shape="2064.16,184.75 2063.50,183.73 2062.82,183.31 2062.12,183.52 2061.40,184.34"/>
    </edge>
    <edge id=":11572522414_1" function="internal">
        <lane id=":11572522414_1_0" index="0" allow="pedestrian bicycle" speed="5.56" length="7.68" width="1.00" shape="2064.16,184.75 2060.79,177.86"/>
    </edge>
    <edge id=":11572522414_2" function="internal">
        <lane id=":11572522414_2_0" index="0" allow="pedestrian bicycle" speed="2.04" length="1.46" width="1.00" shape="2064.16,184.75 2064.22,184.31 2064.39,184.08 2064.67,184.09 2065.06,184.31"/>
    </edge>
    <edge id=":11572522414_3" function="internal">
        <lane id=":11572522414_3_0" index="0" allow="pedestrian bicycle" speed="5.56" length="7.68" width="1.00" shape="2061.69,177.42 2065.06,184.31"/>
    </edge>
    <edge id=":11572522414_4" function="internal">
        <lane id=":11572522414_4_0" index="0" allow="pedestrian bicycle" speed="5.56" length="7.26" width="1.00" shape="2061.69,177.42 2062.35,179.23 2062.52,180.99 2062.20,182.69 2061.40,184.34"/>
    </edge>
    <edge id=":11572522414_5" function="internal">
        <lane id=":11572522414_5_0" index="0" allow="pedestrian bicycle" speed="2.04" length="1.46" width="1.00" shape="2061.69,177.42 2061.63,177.86 2061.46,178.08 2061.18,178.08 2060.79,177.86"/>
    </edge>
    <edge id=":11572522414_6" function="internal">
        <lane id=":11572522414_6_0" index="0" allow="pedestrian bicycle" speed="5.56" length="5.75" width="1.00" shape="2059.72,183.26 2060.58,181.69 2061.04,180.27 2061.11,178.99 2060.79,177.86"/>
    </edge>
    <edge id=":11572522414_7" function="internal">
        <lane id=":11572522414_7_0" index="0" allow="pedestrian bicycle" speed="4.99" length="7.46" width="1.00" shape="2059.72,183.26 2061.08,181.73 2062.43,181.39 2063.75,182.25 2065.06,184.31"/>
    </edge>
    <edge id=":11572522414_8" function="internal">
        <lane id=":11572522414_8_0" index="0" allow="pedestrian bicycle" speed="2.89" length="2.92" width="2.00" shape="2059.72,183.26 2060.55,182.90 2061.10,182.96 2061.39,183.44 2061.40,184.34"/>
    </edge>
    <edge id=":11572522414_w0" function="walkingarea">
        <lane id=":11572522414_w0_0" index="0" allow="pedestrian" speed="2.78" length="5.10" width="4.00" shape="2063.71,184.97 2065.51,184.09 2062.14,177.20 2060.34,178.07 2060.47,179.19 2060.31,179.91 2059.98,180.74 2059.51,181.68 2058.88,182.72 2062.24,184.89 2062.77,184.33 2063.02,184.28 2063.26,184.36 2063.49,184.59"/>
    </edge>
    <edge id=":12015038823_w0" function="walkingarea">
        <lane id=":12015038823_w0_0" index="0" allow="pedestrian" speed="2.78" length="3.82" width="2.00" shape="756.10,490.49 757.63,489.21 757.36,486.55 755.96,485.13 752.67,489.75 754.45,490.67 754.94,490.06 755.20,489.96 755.49,490.00 755.78,490.17"/>
    </edge>
    <edge id=":12048143238_0" function="internal">
        <lane id=":12048143238_0_0" index="0" allow="pedestrian delivery bicycle" speed="5.56" length="7.71" shape="2220.98,740.32 2220.08,738.41 2220.01,736.67 2220.76,735.09 2222.33,733.69"/>
    </edge>
    <edge id=":12048143238_1" function="internal">
        <lane id=":12048143238_1_0" index="0" allow="pedestrian delivery bicycle" speed="3.90" length="2.57" shape="2224.11,736.35 2223.58,736.82 2223.33,737.34 2223.36,737.92 2223.65,738.56"/>
    </edge>
    <edge id=":12048143238_w0" function="walkingarea">
        <lane id=":12048143238_w0_0" index="0" allow="pedestrian" speed="2.78" length="4.25" width="6.40" shape="2219.64,741.20 2224.99,737.68 2221.45,732.35 2218.89,734.90 2218.35,736.33 2218.29,737.85 2218.72,739.47"/>
    </edge>
    <edge id=":12048143240_0" function="internal">
        <lane id=":12048143240_0_0" index="0" allow="pedestrian delivery bicycle" speed="5.56" length="5.06" shape="2290.88,768.25 2290.70,769.55 2290.22,770.67 2289.45,771.61 2288.38,772.36"/>
    </edge>
    <edge id=":12048143240_1" function="internal">
        <lane id=":12048143240_1_0" index="0" allow="pedestrian delivery bicycle" speed="4.02" length="1.69" shape="2286.85,769.55 2287.20,769.30 2287.46,768.99 2287.62,768.61 2287.68,768.18"/>
    </edge>
    <edge id=":12048143240_w0" function="walkingarea">
        <lane id=":12048143240_w0_0" index="0" allow="pedestrian" speed="2.78" length="3.55" width="6.40" shape="2292.48,768.29 2286.08,768.15 2289.14,773.77 2290.96,772.37 2291.60,771.51 2292.07,770.54 2292.36,769.47"/>
    </edge>
    <edge id=":12048143492_0" function="internal">
        <lane id=":12048143492_0_0" index="0" allow="pedestrian delivery bicycle" speed="3.65" length="4.67" shape="1866.31,540.73 1867.74,540.83 1868.49,541.33 1868.54,542.22 1867.89,543.51"/>
    </edge>
    <edge id=":12048143562_0" function="internal">
        <lane id=":12048143562_0_0" index="0" allow="pedestrian delivery bicycle" speed="3.65" length="4.67" shape="2244.07,537.28 2242.64,537.10 2241.92,536.57 2241.92,535.68 2242.63,534.42"/>
    </edge>
    <edge id=":12048143563_0" function="internal">
        <lane id=":12048143563_0_0" index="0" allow="pedestrian delivery bicycle" speed="3.65" length="4.67" shape="2279.31,515.91 2280.74,516.09 2281.46,516.62 2281.46,517.51 2280.75,518.77"/>
    </edge>
    <edge id=":12194831601_w0" function="walkingarea">
        <lane id=":12194831601_w0_0" index="0" allow="pedestrian" speed="2.78" length="4.03" width="2.00" shape="1079.09,748.63 1081.09,748.54 1081.22,747.70 1081.42,747.41 1081.70,747.19 1082.07,747.05 1082.52,746.99 1082.45,744.99 1081.62,744.85 1081.32,744.66 1081.11,744.37 1080.97,744.00 1080.92,743.55 1078.92,743.59 1078.77,744.45 1078.57,744.75 1078.28,744.97 1077.91,745.11 1077.45,745.17 1077.53,747.17 1078.37,747.31 1078.67,747.51 1078.89,747.80 1079.03,748.17"/>
    </edge>
    <edge id=":12194831604_w0" function="walkingarea">
        <lane id=":12194831604_w0_0" index="0" allow="pedestrian" speed="2.78" length="4.04" width="2.00" shape="1074.46,599.26 1075.51,597.55 1071.25,594.93 1070.20,596.64 1070.82,597.22 1070.96,597.56 1070.99,597.94 1070.90,598.34 1070.70,598.77 1072.43,599.77 1072.99,599.14 1073.32,598.99 1073.67,598.97 1074.05,599.05"/>
    </edge>
    <edge id=":12194831870_0" function="internal">
        <lane id=":12194831870_0_0" index="0" disallow="pedestrian tram rail_urban rail rail_electric rail_fast ship container cable_car subway aircraft wheelchair scooter drone" speed="13.89" length="5.05" shape="1108.82,742.15 1109.13,747.19"/>
    </edge>
    <edge id=":12194831870_c0" function="crossing" crossingEdges="-206566222#1">
        <lane id=":12194831870_c0_0" index="0" allow="pedestrian" speed="2.78" length="3.20" width="4.00" shape="1107.38,744.77 1110.57,744.57" outlineShape="1107.25,742.78 1110.45,742.58 1110.70,746.57 1107.50,746.77"/>
    </edge>
    <edge id=":12194831870_w0" function="walkingarea">
        <lane id=":12194831870_w0_0" index="0" allow="pedestrian" speed="2.78" length="3.88" width="4.00" shape="1110.73,747.09 1113.72,746.91 1115.15,745.22 1114.96,743.22 1113.41,741.87 1110.41,742.05 1110.45,742.58 1110.70,746.57"/>
    </edge>
    <edge id=":12194831870_w1" function="walkingarea">
        <lane id=":12194831870_w1_0" index="0" allow="pedestrian" speed="2.78" length="1.50" width="4.00" shape="1107.50,746.77 1107.25,742.78 1105.81,743.90 1105.95,745.90"/>
    </edge>
    <edge id=":12194887678_w0" function="walkingarea">
        <lane id=":12194887678_w0_0" index="0" allow="pedestrian" speed="2.78" length="5.05" width="2.00" shape="1122.58,378.98 1122.55,376.99 1121.85,376.90 1121.72,376.78 1121.75,376.60 1121.92,376.38 1122.24,376.10 1121.03,374.51 1115.96,378.37 1117.17,379.96 1118.94,378.98 1119.67,378.87 1120.44,378.89 1121.38,378.96"/>
    </edge>
    <edge id=":12194887679_w0" function="walkingarea">
        <lane id=":12194887679_w0_0" index="0" allow="pedestrian" speed="2.78" length="5.13" width="2.00" shape="1142.51,363.83 1142.47,361.83 1141.77,361.74 1141.64,361.62 1141.66,361.45 1141.84,361.23 1142.16,360.95 1140.95,359.36 1135.85,363.24 1137.06,364.83 1138.84,363.84 1139.58,363.72 1140.36,363.74 1141.30,363.81"/>
    </edge>
    <edge id=":12194887680_w0" function="walkingarea">
        <lane id=":12194887680_w0_0" index="0" allow="pedestrian" speed="2.78" length="4.95" width="2.00" shape="1107.41,373.69 1107.39,371.69 1106.69,371.59 1106.55,371.45 1106.57,371.27 1106.73,371.03 1107.04,370.73 1105.74,369.20 1101.07,373.15 1102.36,374.68 1103.97,373.69 1104.66,373.57 1105.39,373.59 1106.28,373.65"/>
    </edge>
    <edge id=":12194887681_w0" function="walkingarea">
        <lane id=":12194887681_w0_0" index="0" allow="pedestrian" speed="2.78" length="5.04" width="2.00" shape="1127.25,372.30 1126.04,370.70 1124.29,371.67 1123.57,371.78 1122.80,371.75 1121.88,371.67 1120.69,371.63 1120.70,373.63 1121.40,373.72 1121.53,373.85 1121.50,374.03 1121.33,374.25 1121.01,374.53 1122.22,376.12"/>
    </edge>
    <edge id=":12194887682_w0" function="walkingarea">
        <lane id=":12194887682_w0_0" index="0" allow="pedestrian" speed="2.78" length="0.30" width="2.00" shape="1111.41,373.66 1111.41,371.66 1111.10,371.66 1111.12,373.66"/>
    </edge>
    <edge id=":12194887684_0" function="internal">
        <lane id=":12194887684_0_0" index="0" allow="pedestrian bicycle" speed="2.89" length="2.92" width="2.00" shape="1206.44,312.45 1205.54,312.51 1205.04,312.27 1204.94,311.72 1205.23,310.86"/>
    </edge>
    <edge id=":12194887684_w0" function="walkingarea">
        <lane id=":12194887684_w0_0" index="0" allow="pedestrian" speed="2.78" length="1.74" width="4.00" shape="1207.05,313.25 1204.62,310.07 1203.91,310.94 1203.77,311.34 1203.63,311.75 1203.37,312.15 1202.89,312.58 1204.05,314.21 1205.12,313.77 1205.56,313.75 1206.00,313.72 1206.48,313.59"/>
    </edge>
    <edge id=":12194887692_0" function="internal">
        <lane id=":12194887692_0_0" index="0" allow="pedestrian bicycle" speed="2.89" length="2.92" width="2.00" shape="1334.87,165.93 1335.59,165.38 1336.14,165.30 1336.54,165.70 1336.77,166.57"/>
    </edge>
    <edge id=":12194887692_w0" function="walkingarea">
        <lane id=":12194887692_w0_0" index="0" allow="pedestrian" speed="2.78" length="2.56" width="4.00" shape="1337.54,163.94 1335.60,163.46 1335.12,164.31 1334.81,164.54 1334.48,164.77 1334.18,165.09 1333.93,165.60 1337.71,166.89 1337.80,165.83 1337.67,165.43 1337.53,165.03 1337.46,164.56"/>
    </edge>
    <edge id=":12194887694_0" function="internal">
        <lane id=":12194887694_0_0" index="0" allow="pedestrian bicycle" speed="5.38" length="5.36" width="2.00" shape="1322.07,206.26 1320.75,205.93 1319.56,206.12 1318.52,206.84 1317.62,208.08"/>
    </edge>
    <edge id=":12194887694_1" function="internal">
        <lane id=":12194887694_1_0" index="0" allow="pedestrian delivery bicycle" speed="5.56" length="7.71" shape="1322.07,206.26 1314.97,203.25"/>
    </edge>
    <edge id=":12194887694_2" function="internal">
        <lane id=":12194887694_2_0" index="0" allow="pedestrian bicycle" speed="5.56" length="9.18" width="2.00" shape="1322.07,206.26 1320.24,205.03 1319.40,203.33 1319.54,201.15 1320.66,198.48"/>
    </edge>
    <edge id=":12194887694_3" function="internal">
        <lane id=":12194887694_3_0" index="0" allow="pedestrian delivery bicycle" speed="3.65" length="4.67" shape="1322.07,206.26 1321.27,205.05 1321.22,204.16 1321.90,203.58 1323.31,203.31"/>
    </edge>
    <edge id=":12194887694_4" function="internal">
        <lane id=":12194887694_4_0" index="0" allow="pedestrian bicycle" speed="4.55" length="4.62" width="2.00" shape="1322.41,199.45 1321.88,200.75 1321.86,201.82 1322.33,202.68 1323.31,203.31"/>
    </edge>
    <edge id=":12194887694_5" function="internal">
        <lane id=":12194887694_5_0" index="0" allow="pedestrian bicycle" speed="5.56" length="9.87" width="2.00" shape="1322.41,199.45 1317.62,208.08"/>
    </edge>
    <edge id=":12194887694_6" function="internal">
        <lane id=":12194887694_6_0" index="0" allow="pedestrian bicycle" speed="5.56" length="9.27" width="2.00" shape="1322.41,199.45 1320.77,201.80 1318.99,203.22 1317.05,203.70 1314.97,203.25"/>
    </edge>
    <edge id=":12194887694_7" function="internal">
        <lane id=":12194887694_7_0" index="0" allow="pedestrian bicycle" speed="2.89" length="2.92" width="2.00" shape="1322.41,199.45 1321.61,199.87 1321.05,199.84 1320.73,199.38 1320.66,198.48"/>
    </edge>
    <edge id=":12194887694_8" function="internal">
        <lane id=":12194887694_8_0" index="0" allow="pedestrian bicycle" speed="5.38" length="5.36" width="2.00" shape="1316.21,200.31 1317.53,200.63 1318.72,200.44 1319.76,199.72 1320.66,198.48"/>
    </edge>
    <edge id=":12194887694_9" function="internal">
        <lane id=":12194887694_9_0" index="0" allow="pedestrian delivery bicycle" speed="5.56" length="7.71" shape="1316.21,200.31 1323.31,203.31"/>
    </edge>
    <edge id=":12194887694_10" function="internal">
        <lane id=":12194887694_10_0" index="0" allow="pedestrian bicycle" speed="5.56" length="9.18" width="2.00" shape="1316.21,200.31 1318.04,201.53 1318.88,203.23 1318.74,205.41 1317.62,208.08"/>
    </edge>
    <edge id=":12194887694_11" function="internal">
        <lane id=":12194887694_11_0" index="0" allow="pedestrian delivery bicycle" speed="3.65" length="4.67" shape="1316.21,200.31 1317.01,201.51 1317.06,202.40 1316.38,202.98 1314.97,203.25"/>
    </edge>
    <edge id=":12194887694_12" function="internal">
        <lane id=":12194887694_12_0" index="0" allow="pedestrian bicycle" speed="4.55" length="4.62" width="2.00" shape="1315.87,207.11 1316.40,205.81 1316.43,204.74 1315.95,203.89 1314.97,203.25"/>
    </edge>
    <edge id=":12194887694_13" function="internal">
        <lane id=":12194887694_13_0" index="0" allow="pedestrian bicycle" speed="5.56" length="9.87" width="2.00" shape="1315.87,207.11 1320.66,198.48"/>
    </edge>
    <edge id=":12194887694_14" function="internal">
        <lane id=":12194887694_14_0" index="0" allow="pedestrian bicycle" speed="5.56" length="9.27" width="2.00" shape="1315.87,207.11 1317.51,204.76 1319.29,203.34 1321.23,202.86 1323.31,203.31"/>
    </edge>
    <edge id=":12194887694_15" function="internal">
        <lane id=":12194887694_15_0" index="0" allow="pedestrian bicycle" speed="2.89" length="2.92" width="2.00" shape="1315.87,207.11 1316.67,206.69 1317.23,206.72 1317.55,207.18 1317.62,208.08"/>
    </edge>
    <edge id=":12194887694_w0" function="walkingarea">
        <lane id=":12194887694_w0_0" index="0" allow="pedestrian" speed="2.78" length="6.59" width="6.40" shape="1321.44,207.73 1323.94,201.84 1323.25,201.36 1323.08,201.07 1323.03,200.73 1323.10,200.36 1323.28,199.94 1319.79,198.00 1319.04,198.84 1318.58,199.05 1318.06,199.12 1317.48,199.05 1316.83,198.83 1314.34,204.73 1315.03,205.20 1315.20,205.49 1315.25,205.83 1315.18,206.21 1315.00,206.62 1318.49,208.56 1319.24,207.72 1319.70,207.51 1320.22,207.44 1320.80,207.52"/>
    </edge>
    <edge id=":12194887695_0" function="internal">
        <lane id=":12194887695_0_0" index="0" allow="pedestrian delivery bicycle" speed="5.56" length="5.55" shape="1202.70,317.50 1199.23,313.18"/>
    </edge>
    <edge id=":12194887695_1" function="internal">
        <lane id=":12194887695_1_0" index="0" allow="pedestrian delivery bicycle" speed="3.65" length="1.44" shape="1202.70,317.50 1202.54,316.07"/>
    </edge>
    <edge id=":12194887695_4" function="internal">
        <lane id=":12194887695_4_0" index="0" allow="pedestrian delivery bicycle" speed="3.65" length="3.23" shape="1202.54,316.07 1202.89,315.25 1203.76,315.04 1205.14,315.44"/>
    </edge>
    <edge id=":12194887695_2" function="internal">
        <lane id=":12194887695_2_0" index="0" allow="pedestrian delivery bicycle" speed="5.56" length="5.37" shape="1201.79,311.24 1205.14,315.44"/>
    </edge>
    <edge id=":12194887695_3" function="internal">
        <lane id=":12194887695_3_0" index="0" allow="pedestrian delivery bicycle" speed="3.65" length="1.44" shape="1201.79,311.24 1201.87,312.68"/>
    </edge>
    <edge id=":12194887695_5" function="internal">
        <lane id=":12194887695_5_0" index="0" allow="pedestrian delivery bicycle" speed="3.65" length="3.23" shape="1201.87,312.68 1201.48,313.49 1200.60,313.65 1199.23,313.18"/>
    </edge>
    <edge id=":12194887695_w0" function="walkingarea">
        <lane id=":12194887695_w0_0" index="0" allow="pedestrian" speed="2.78" length="5.15" width="6.40" shape="1201.48,318.54 1206.37,314.41 1206.62,312.39 1205.47,310.76 1203.06,310.28 1197.96,314.14 1198.31,314.89 1198.32,315.24 1198.21,315.58 1197.98,315.90 1197.64,316.21 1198.76,317.87 1199.65,317.50 1200.10,317.54 1200.55,317.72 1201.01,318.06"/>
    </edge>
    <edge id=":12194887698_w0" function="walkingarea">
        <lane id=":12194887698_w0_0" index="0" allow="pedestrian" speed="2.78" length="3.30" width="2.00" shape="1340.20,157.45 1338.95,155.88 1338.07,156.36 1337.57,156.48 1337.01,156.53 1336.41,156.49 1335.76,156.39 1335.34,158.34 1336.12,158.68 1336.35,158.94 1336.48,159.27 1336.51,159.66 1336.44,160.11 1338.38,160.60 1338.73,159.25 1338.92,158.79 1339.19,158.38 1339.60,157.95"/>
    </edge>
    <edge id=":12194887699_0" function="internal">
        <lane id=":12194887699_0_0" index="0" allow="pedestrian delivery bicycle" speed="5.56" length="10.86" shape="1348.00,156.59 1337.37,154.36"/>
    </edge>
    <edge id=":12194887699_1" function="internal">
        <lane id=":12194887699_1_0" index="0" allow="pedestrian delivery bicycle" speed="3.65" length="1.44" shape="1348.00,156.59 1346.99,155.56"/>
    </edge>
    <edge id=":12194887699_4" function="internal">
        <lane id=":12194887699_4_0" index="0" allow="pedestrian delivery bicycle" speed="3.65" length="3.23" shape="1346.99,155.56 1346.76,154.70 1347.32,154.00 1348.66,153.46"/>
    </edge>
    <edge id=":12194887699_2" function="internal">
        <lane id=":12194887699_2_0" index="0" allow="pedestrian delivery bicycle" speed="5.56" length="10.86" shape="1338.03,151.23 1348.66,153.46"/>
    </edge>
    <edge id=":12194887699_3" function="internal">
        <lane id=":12194887699_3_0" index="0" allow="pedestrian delivery bicycle" speed="3.65" length="1.44" shape="1338.03,151.23 1339.04,152.25"/>
    </edge>
    <edge id=":12194887699_5" function="internal">
        <lane id=":12194887699_5_0" index="0" allow="pedestrian delivery bicycle" speed="3.65" length="3.23" shape="1339.04,152.25 1339.26,153.12 1338.71,153.82 1337.37,154.36"/>
    </edge>
    <edge id=":12194887699_w0" function="walkingarea">
        <lane id=":12194887699_w0_0" index="0" allow="pedestrian" speed="2.78" length="7.96" width="6.40" shape="1347.67,158.16 1348.98,151.90 1348.30,151.62 1348.18,151.43 1348.20,151.21 1348.37,150.95 1348.69,150.65 1347.44,149.09 1345.32,150.04 1343.93,150.23 1342.30,150.23 1340.44,150.04 1338.36,149.66 1337.04,155.92 1337.34,157.17 1338.59,158.73"/>
    </edge>
    <edge id=":12194894402_w0" function="walkingarea">
        <lane id=":12194894402_w0_0" index="0" allow="pedestrian" speed="2.78" length="4.56" width="2.00" shape="1056.17,588.01 1057.22,586.31 1052.48,583.41 1051.44,585.12 1051.99,585.61 1052.05,585.84 1051.95,586.05 1051.71,586.25 1051.32,586.43 1052.02,588.30 1053.76,587.79 1054.49,587.69 1055.14,587.70 1055.70,587.80"/>
    </edge>
    <edge id=":12307482068_0" function="internal">
        <lane id=":12307482068_0_0" index="0" allow="pedestrian delivery bicycle" speed="3.65" length="4.67" shape="529.44,1087.93 528.28,1088.79 527.40,1088.90 526.78,1088.25 526.43,1086.85"/>
    </edge>
    <edge id=":12307482068_w0" function="walkingarea">
        <lane id=":12307482068_w0_0" index="0" allow="pedestrian" speed="2.78" length="4.65" width="6.40" shape="530.95,1088.47 524.93,1086.31 524.49,1087.04 524.19,1087.24 523.85,1087.34 523.45,1087.33 523.01,1087.21 522.33,1089.09 524.63,1089.82 526.59,1090.22 528.20,1090.28 529.46,1090.01 530.38,1089.41"/>
    </edge>
    <edge id=":12307482069_0" function="internal">
        <lane id=":12307482069_0_0" index="0" allow="pedestrian delivery bicycle" speed="3.65" length="4.67" shape="385.87,1020.33 386.79,1021.44 386.95,1022.32 386.34,1022.97 384.96,1023.40"/>
    </edge>
    <edge id=":12307482069_w0" function="walkingarea">
        <lane id=":12307482069_w0_0" index="0" allow="pedestrian" speed="2.78" length="4.38" width="6.40" shape="390.06,1020.22 389.07,1018.48 388.18,1018.85 387.73,1018.93 387.27,1018.95 386.80,1018.91 386.33,1018.80 384.51,1024.93 384.32,1024.17 384.99,1023.49 386.17,1022.60 387.86,1021.51"/>
    </edge>
    <edge id=":12307482072_0" function="internal">