<?xml version="1.0" encoding="UTF-8"?>

<!-- generated on 2021-12-08 13:41:07 by Eclipse SUMO duarouter Version v1_10_0+1788-4a48687524d
<configuration xmlns:xsi="http://www.w3.org/2001/XMLSchema-instance" xsi:noNamespaceSchemaLocation="http://sumo.dlr.de/xsd/duarouterConfiguration.xsd">

    <input>
        <net-file value="Tjunction.net.xml"/>
        <route-files value="Tjunction.trips.xml"/>
    </input>

    <output>
        <output-file value="Tjunction.rou.xml"/>
        <alternatives-output value="Tjunction.rou.alt.xml"/>
    </output>

    <report>
        <ignore-errors value="true"/>
    </report>

</configuration>
-->

<routes xmlns:xsi="http://www.w3.org/2001/XMLSchema-instance" xsi:noNamespaceSchemaLocation="http://sumo.dlr.de/xsd/routes_file.xsd">
    

</routes>


    
    