<?xml version="1.0" encoding="UTF-8"?>

<!-- generated on 2025-12-15 18:43:38 by Eclipse SUMO netconvert Version 1.23.1
<netconvertConfiguration xmlns:xsi="http://www.w3.org/2001/XMLSchema-instance" xsi:noNamespaceSchemaLocation="http://sumo.dlr.de/xsd/netconvertConfiguration.xsd">

    <input>
        <sumo-net-file value="symaps.net.xml"/>
    </input>

    <output>
        <output-file value="symaps_carway.net.xml"/>
        <output.street-names value="true"/>
    </output>

    <processing>
        <geometry.min-radius.fix.railways value="false"/>
        <geometry.avoid-overlap value="false"/>
        <geometry.max-grade.fix value="false"/>
        <offset.disable-normalization value="true"/>
        <lefthand value="0"/>
    </processing>

    <edge_removal>
        <keep-edges.by-vclass value="passenger"/>
    </edge_removal>

    <junctions>
        <no-turnarounds value="true"/>
        <junctions.corner-detail value="5"/>
        <junctions.limit-turn-speed value="5.50"/>
        <rectangular-lane-cut value="0"/>
    </junctions>

    <pedestrian>
        <walkingareas value="1"/>
    </pedestrian>

</netconvertConfiguration>
-->

<net version="1.20" junctionCornerDetail="5" walkingareas="true" limitTurnSpeed="5.50" avoidOverlap="0" xmlns:xsi="http://www.w3.org/2001/XMLSchema-instance" xsi:noNamespaceSchemaLocation="http://sumo.dlr.de/xsd/net_file.xsd">

    <location netOffset="-118115.16,-6339935.64" convBoundary="13.99,6.12,2290.74,1127.48" origBoundary="1.061047,49.382038,1.081627,49.388635" projParameter="+proj=merc +a=6378137 +b=6378137 +lat_ts=0.0 +lon_0=0.0 +x_0=0.0 +y_0=0 +k=1.0 +units=m +nadgrids=@null +wktext +no_defs"/>

    <type id="highway.residential" priority="3" numLanes="1" speed="13.89" disallow="pedestrian tram rail_urban rail rail_electric rail_fast ship container cable_car subway aircraft wheelchair scooter drone" oneway="0" sidewalkWidth="2.00"/>
    <type id="highway.tertiary" priority="10" numLanes="1" speed="13.89" disallow="pedestrian tram rail_urban rail rail_electric rail_fast ship container cable_car subway aircraft wheelchair scooter drone" oneway="0" sidewalkWidth="3.00"/>
    <type id="highway.unclassified" priority="4" numLanes="1" speed="13.89" disallow="pedestrian tram rail_urban rail rail_electric rail_fast ship container cable_car subway aircraft wheelchair scooter drone" oneway="0" sidewalkWidth="2.00"/>

    <edge id=":10675013082_0" function="internal">
        <lane id=":10675013082_0_0" index="0" disallow="pedestrian tram rail_urban rail rail_electric rail_fast ship container cable_car subway aircraft wheelchair scooter drone" speed="5.56" length="4.00" shape="2227.34,579.90 2223.92,581.97"/>
    </edge>
    <edge id=":10675013082_1" function="internal">
        <lane id=":10675013082_1_0" index="0" disallow="pedestrian tram rail_urban rail rail_electric rail_fast ship container cable_car subway aircraft wheelchair scooter drone" speed="5.56" length="4.00" shape="2222.26,579.24 2225.68,577.17"/>
    </edge>
    <edge id=":10675013084_0" function="internal">
        <lane id=":10675013084_0_0" index="0" disallow="pedestrian tram rail_urban rail rail_electric rail_fast ship container cable_car subway aircraft wheelchair scooter drone" speed="7.29" length="8.35" shape="2167.86,615.92 2166.38,617.18 2165.46,618.83 2165.10,620.87 2165.29,623.30"/>
    </edge>
    <edge id=":10675013084_1" function="internal">
        <lane id=":10675013084_1_0" index="0" disallow="pedestrian tram rail_urban rail rail_electric rail_fast ship container cable_car subway aircraft wheelchair scooter drone" speed="3.65" length="4.67" shape="2167.86,615.92 2166.42,615.86 2165.67,615.38 2165.59,614.49 2166.21,613.18"/>
    </edge>
    <edge id=":10675013084_2" function="internal">
        <lane id=":10675013084_2_0" index="0" disallow="pedestrian tram rail_urban rail rail_electric rail_fast ship container cable_car subway aircraft wheelchair scooter drone" speed="7.85" length="8.55" shape="2158.10,612.54 2160.34,613.62 2162.43,614.08 2164.39,613.94 2166.21,613.18"/>
    </edge>
    <edge id=":10675013084_3" function="internal">
        <lane id=":10675013084_3_0" index="0" disallow="pedestrian tram rail_urban rail rail_electric rail_fast ship container cable_car subway aircraft wheelchair scooter drone" speed="11.32" length="13.35" shape="2158.10,612.54 2160.76,614.54 2162.85,617.00 2164.35,619.92 2165.29,623.30"/>
    </edge>
    <edge id=":10710011964_0" function="internal">
        <lane id=":10710011964_0_0" index="0" disallow="pedestrian tram rail_urban rail rail_electric rail_fast ship container cable_car subway aircraft wheelchair scooter drone" speed="9.92" length="6.74" shape="1117.89,563.86 1115.96,564.42 1114.58,564.85 1113.45,565.58 1112.23,567.08"/>
    </edge>
    <edge id=":10710011964_1" function="internal">
        <lane id=":10710011964_1_0" index="0" disallow="pedestrian tram rail_urban rail rail_electric rail_fast ship container cable_car subway aircraft wheelchair scooter drone" speed="13.89" length="6.81" shape="1114.95,560.88 1114.32,562.80 1113.88,564.12 1113.29,565.37 1112.23,567.08"/>
    </edge>
    <edge id=":10710011966_0" function="internal">
        <lane id=":10710011966_0_0" index="0" disallow="pedestrian tram rail_urban rail rail_electric rail_fast ship container cable_car subway aircraft wheelchair scooter drone" speed="13.89" length="0.10" shape="1135.94,560.32 1135.94,560.32"/>
    </edge>
    <edge id=":10710011972_0" function="internal">
        <lane id=":10710011972_0_0" index="0" disallow="pedestrian tram rail_urban rail rail_electric rail_fast ship container cable_car subway aircraft wheelchair scooter drone" speed="13.89" length="0.10" shape="1146.47,559.89 1146.47,559.89"/>
    </edge>
    <edge id=":10710019432_0" function="internal">
        <lane id=":10710019432_0_0" index="0" disallow="pedestrian tram rail_urban rail rail_electric rail_fast ship container cable_car subway aircraft wheelchair scooter drone" speed="13.89" length="0.26" shape="1160.32,557.65 1160.24,557.65 1160.19,557.65 1160.14,557.66 1160.06,557.67"/>
    </edge>
    <edge id=":11206273098_0" function="internal">
        <lane id=":11206273098_0_0" index="0" disallow="pedestrian tram rail_urban rail rail_electric rail_fast ship container cable_car subway aircraft wheelchair scooter drone" speed="3.65" length="4.67" shape="2152.42,1120.02 2150.98,1120.02 2150.21,1119.57 2150.10,1118.68 2150.66,1117.36"/>
    </edge>
    <edge id=":11748939431_0" function="internal">
        <lane id=":11748939431_0_0" index="0" disallow="pedestrian tram rail_urban rail rail_electric rail_fast ship container cable_car subway aircraft wheelchair scooter drone" speed="13.89" length="0.10" shape="1176.74,557.64 1176.67,557.63"/>
    </edge>
    <edge id=":11748939431_1" function="internal">
        <lane id=":11748939431_1_0" index="0" disallow="pedestrian tram rail_urban rail rail_electric rail_fast ship container cable_car subway aircraft wheelchair scooter drone" speed="13.89" length="0.10" shape="1176.67,554.45 1176.74,554.44"/>
    </edge>
    <edge id=":12048143588_0" function="internal">
        <lane id=":12048143588_0_0" index="0" disallow="pedestrian tram rail_urban rail rail_electric rail_fast ship container cable_car subway aircraft wheelchair scooter drone" speed="13.89" length="0.46" shape="2129.99,623.84 2130.00,623.71 2130.01,623.61 2130.03,623.52 2130.08,623.39"/>
    </edge>
    <edge id=":12048143591_0" function="internal">
        <lane id=":12048143591_0_0" index="0" disallow="pedestrian tram rail_urban rail rail_electric rail_fast ship container cable_car subway aircraft wheelchair scooter drone" speed="3.71" length="4.54" shape="2290.74,831.06 2290.12,832.32 2289.40,832.80 2288.58,832.52 2287.66,831.47"/>
    </edge>
    <edge id=":12048143609_0" function="internal">
        <lane id=":12048143609_0_0" index="0" disallow="pedestrian tram rail_urban rail rail_electric rail_fast ship container cable_car subway aircraft wheelchair scooter drone" speed="13.89" length="0.46" shape="2285.39,816.75 2285.40,816.62 2285.41,816.52 2285.43,816.43 2285.47,816.30"/>
    </edge>
    <edge id=":12194831870_0" function="internal">
        <lane id=":12194831870_0_0" index="0" disallow="pedestrian tram rail_urban rail rail_electric rail_fast ship container cable_car subway aircraft wheelchair scooter drone" speed="13.89" length="4.00" shape="1105.91,746.90 1105.66,742.90"/>
    </edge>
    <edge id=":12194831870_1" function="internal">
        <lane id=":12194831870_1_0" index="0" disallow="pedestrian tram rail_urban rail rail_electric rail_fast ship container cable_car subway aircraft wheelchair scooter drone" speed="13.89" length="4.00" shape="1108.85,742.70 1109.10,746.70"/>
    </edge>
    <edge id=":12194831870_w0" function="walkingarea">
        <lane id=":12194831870_w0_0" index="0" allow="pedestrian" speed="2.78" length="3.00" width="4.00" shape="1110.70,746.60 1113.69,746.41 1113.44,742.42 1110.45,742.60 1110.70,746.60"/>
    </edge>
    <edge id=":12194887682_0" function="internal">
        <lane id=":12194887682_0_0" index="0" disallow="pedestrian tram rail_urban rail rail_electric rail_fast ship container cable_car subway aircraft wheelchair scooter drone" speed="8.33" length="3.95" shape="1113.81,372.70 1110.72,375.16"/>
    </edge>
    <edge id=":12194887682_1" function="internal">
        <lane id=":12194887682_1_0" index="0" disallow="pedestrian tram rail_urban rail rail_electric rail_fast ship container cable_car subway aircraft wheelchair scooter drone" speed="8.33" length="4.01" shape="1108.71,372.67 1111.85,370.18"/>
    </edge>
    <edge id=":1332205441_0" function="internal">
        <lane id=":1332205441_0_0" index="0" disallow="pedestrian tram rail_urban rail rail_electric rail_fast ship container cable_car subway aircraft wheelchair scooter drone" speed="3.65" length="4.67" shape="118.32,1126.83 118.08,1128.25 117.51,1128.94 116.62,1128.90 115.40,1128.13"/>
    </edge>
    <edge id=":1634141272_0" function="internal">
        <lane id=":1634141272_0_0" index="0" disallow="pedestrian tram rail_urban rail rail_electric rail_fast ship container cable_car subway aircraft wheelchair scooter drone" speed="8.33" length="0.32" shape="1087.72,401.41 1087.68,401.50 1087.66,401.56 1087.64,401.62 1087.62,401.71"/>
    </edge>
    <edge id=":1634141272_1" function="internal">
        <lane id=":1634141272_1_0" index="0" disallow="pedestrian tram rail_urban rail rail_electric rail_fast ship container cable_car subway aircraft wheelchair scooter drone" speed="8.33" length="0.95" shape="1084.49,401.07 1084.55,400.80 1084.60,400.61 1084.66,400.43 1084.77,400.17"/>
    </edge>
    <edge id=":1832530297_0" function="internal">
        <lane id=":1832530297_0_0" index="0" disallow="pedestrian tram rail_urban rail rail_electric rail_fast ship container cable_car subway aircraft wheelchair scooter drone" speed="13.89" length="7.69" shape="819.19,669.15 821.42,669.44 822.97,669.33 824.52,668.97 826.76,668.49"/>
    </edge>
    <edge id=":1832530297_1" function="internal">
        <lane id=":1832530297_1_0" index="0" disallow="pedestrian tram rail_urban rail rail_electric rail_fast ship container cable_car subway aircraft wheelchair scooter drone" speed="10.95" length="7.76" shape="819.19,669.15 821.41,669.64 822.89,670.24 824.16,671.23 825.74,672.88"/>
    </edge>
    <edge id=":1832530301_0" function="internal">
        <lane id=":1832530301_0_0" index="0" disallow="pedestrian tram rail_urban rail rail_electric rail_fast ship container cable_car subway aircraft wheelchair scooter drone" speed="13.89" length="0.10" shape="846.30,674.51 846.30,674.51"/>
    </edge>
    <edge id=":1832530303_0" function="internal">
        <lane id=":1832530303_0_0" index="0" disallow="pedestrian tram rail_urban rail rail_electric rail_fast ship container cable_car subway aircraft wheelchair scooter drone" speed="13.89" length="7.42" shape="799.72,680.68 801.55,679.43 802.84,678.58 803.91,677.53 805.05,675.69"/>
    </edge>
    <edge id=":1832530303_1" function="internal">
        <lane id=":1832530303_1_0" index="0" disallow="pedestrian tram rail_urban rail rail_electric rail_fast ship container cable_car subway aircraft wheelchair scooter drone" speed="11.58" length="7.49" shape="803.66,682.86 803.49,680.66 803.59,679.13 804.06,677.67 805.05,675.69"/>
    </edge>
    <edge id=":1832530308_0" function="internal">
        <lane id=":1832530308_0_0" index="0" disallow="pedestrian tram rail_urban rail rail_electric rail_fast ship container cable_car subway aircraft wheelchair scooter drone" speed="11.82" length="7.11" shape="832.96,683.06 831.12,684.13 829.81,684.88 828.77,685.86 827.73,687.63"/>
    </edge>
    <edge id=":1832530308_1" function="internal">
        <lane id=":1832530308_1_0" index="0" disallow="pedestrian tram rail_urban rail rail_electric rail_fast ship container cable_car subway aircraft wheelchair scooter drone" speed="11.43" length="7.20" shape="829.16,680.75 829.34,682.85 829.18,684.31 828.66,685.71 827.73,687.63"/>
    </edge>
    <edge id=":1832530327_0" function="internal">
        <lane id=":1832530327_0_0" index="0" disallow="pedestrian tram rail_urban rail rail_electric rail_fast ship container cable_car subway aircraft wheelchair scooter drone" speed="13.89" length="0.49" shape="786.54,692.26 786.61,692.13 786.67,692.05 786.73,691.97 786.84,691.87"/>
    </edge>
    <edge id=":1832530330_0" function="internal">
        <lane id=":1832530330_0_0" index="0" disallow="pedestrian tram rail_urban rail rail_electric rail_fast ship container cable_car subway aircraft wheelchair scooter drone" speed="9.44" length="6.62" shape="812.40,693.82 810.58,693.30 809.25,693.37 807.90,693.84 806.06,694.54"/>
    </edge>
    <edge id=":1832530330_1" function="internal">
        <lane id=":1832530330_1_0" index="0" disallow="pedestrian tram rail_urban rail rail_electric rail_fast ship container cable_car subway aircraft wheelchair scooter drone" speed="11.85" length="6.77" shape="812.40,693.82 810.52,693.11 809.24,692.53 808.16,691.68 806.87,690.18"/>
    </edge>
    <edge id=":1832530332_0" function="internal">
        <lane id=":1832530332_0_0" index="0" disallow="pedestrian tram rail_urban rail rail_electric rail_fast ship container cable_car subway aircraft wheelchair scooter drone" speed="13.89" length="0.45" shape="816.18,694.48 816.04,694.50 815.95,694.50 815.86,694.50 815.72,694.48"/>
    </edge>
    <edge id=":1832530334_0" function="internal">
        <lane id=":1832530334_0_0" index="0" disallow="pedestrian tram rail_urban rail rail_electric rail_fast ship container cable_car subway aircraft wheelchair scooter drone" speed="13.89" length="0.28" shape="793.99,698.57 793.91,698.59 793.86,698.61 793.81,698.64 793.74,698.68"/>
    </edge>
    <edge id=":1833092720_0" function="internal">
        <lane id=":1833092720_0_0" index="0" disallow="pedestrian tram rail_urban rail rail_electric rail_fast ship container cable_car subway aircraft wheelchair scooter drone" speed="13.89" length="0.29" shape="1847.87,69.85 1847.81,69.79 1847.76,69.75 1847.71,69.72 1847.64,69.67"/>
    </edge>
    <edge id=":1833092720_1" function="internal">
        <lane id=":1833092720_1_0" index="0" disallow="pedestrian tram rail_urban rail rail_electric rail_fast ship container cable_car subway aircraft wheelchair scooter drone" speed="13.89" length="0.88" shape="1849.41,67.00 1849.63,67.15 1849.77,67.26 1849.91,67.37 1850.09,67.55"/>
    </edge>
    <edge id=":1833092727_0" function="internal">
        <lane id=":1833092727_0_0" index="0" disallow="pedestrian tram rail_urban rail rail_electric rail_fast ship container cable_car subway aircraft wheelchair scooter drone" speed="13.89" length="0.31" shape="1311.83,200.23 1311.67,200.50"/>
    </edge>
    <edge id=":1833092727_1" function="internal">
        <lane id=":1833092727_1_0" index="0" disallow="pedestrian tram rail_urban rail rail_electric rail_fast ship container cable_car subway aircraft wheelchair scooter drone" speed="13.89" length="0.24" shape="1308.91,198.88 1309.03,198.67"/>
    </edge>
    <edge id=":1833092787_0" function="internal">
        <lane id=":1833092787_0_0" index="0" disallow="pedestrian tram rail_urban rail rail_electric rail_fast ship container cable_car subway aircraft wheelchair scooter drone" speed="13.89" length="0.46" shape="2002.54,301.00 2002.65,301.08 2002.72,301.14 2002.79,301.20 2002.88,301.31"/>
    </edge>
    <edge id=":1833092872_0" function="internal">
        <lane id=":1833092872_0_0" index="0" disallow="pedestrian tram rail_urban rail rail_electric rail_fast ship container cable_car subway aircraft wheelchair scooter drone" speed="3.65" length="4.67" shape="18.35,911.29 18.59,909.87 19.15,909.17 20.05,909.21 21.27,909.97"/>
    </edge>
    <edge id=":1891379916_0" function="internal">
        <lane id=":1891379916_0_0" index="0" disallow="pedestrian tram rail_urban rail rail_electric rail_fast ship container cable_car subway aircraft wheelchair scooter drone" speed="13.89" length="0.47" shape="827.39,688.33 827.33,688.45 827.28,688.54 827.22,688.61 827.13,688.71"/>
    </edge>
    <edge id=":1900253912_0" function="internal">
        <lane id=":1900253912_0_0" index="0" disallow="pedestrian tram rail_urban rail rail_electric rail_fast ship container cable_car subway aircraft wheelchair scooter drone" speed="13.89" length="0.30" shape="1849.09,387.16 1848.82,387.29"/>
    </edge>
    <edge id=":1900253912_1" function="internal">
        <lane id=":1900253912_1_0" index="0" disallow="pedestrian tram rail_urban rail rail_electric rail_fast ship container cable_car subway aircraft wheelchair scooter drone" speed="13.89" length="0.30" shape="1847.41,384.42 1847.68,384.29"/>
    </edge>
    <edge id=":1955284029_0" function="internal">
        <lane id=":1955284029_0_0" index="0" disallow="pedestrian tram rail_urban rail rail_electric rail_fast ship container cable_car subway aircraft wheelchair scooter drone" speed="13.89" length="4.01" shape="1964.35,278.35 1962.60,274.74"/>
    </edge>
    <edge id=":1955284029_1" function="internal">
        <lane id=":1955284029_1_0" index="0" disallow="pedestrian tram rail_urban rail rail_electric rail_fast ship container cable_car subway aircraft wheelchair scooter drone" speed="13.89" length="3.98" shape="1965.49,273.36 1967.22,276.94"/>
    </edge>
    <edge id=":1955284101_0" function="internal">
        <lane id=":1955284101_0_0" index="0" disallow="pedestrian tram rail_urban rail rail_electric rail_fast ship container cable_car subway aircraft wheelchair scooter drone" speed="13.89" length="0.10" shape="2029.65,335.92 2029.72,335.95"/>
    </edge>
    <edge id=":1955284101_1" function="internal">
        <lane id=":1955284101_1_0" index="0" disallow="pedestrian tram rail_urban rail rail_electric rail_fast ship container cable_car subway aircraft wheelchair scooter drone" speed="13.89" length="0.10" shape="2030.82,332.95 2030.89,332.98"/>
    </edge>
    <edge id=":1955284211_0" function="internal">
        <lane id=":1955284211_0_0" index="0" disallow="pedestrian tram rail_urban rail rail_electric rail_fast ship container cable_car subway aircraft wheelchair scooter drone" speed="8.33" length="3.91" shape="1091.65,504.87 1092.89,508.58"/>
    </edge>
    <edge id=":1955284212_0" function="internal">
        <lane id=":1955284212_0_0" index="0" disallow="pedestrian tram rail_urban rail rail_electric rail_fast ship container cable_car subway aircraft wheelchair scooter drone" speed="8.33" length="0.10" shape="1082.47,506.67 1082.47,506.67"/>
    </edge>
    <edge id=":1955284258_0" function="internal">
        <lane id=":1955284258_0_0" index="0" disallow="pedestrian tram rail_urban rail rail_electric rail_fast ship container cable_car subway aircraft wheelchair scooter drone" speed="13.89" length="3.99" shape="1137.94,548.12 1141.84,548.95"/>
    </edge>
    <edge id=":1955284263_0" function="internal">
        <lane id=":1955284263_0_0" index="0" disallow="pedestrian tram rail_urban rail rail_electric rail_fast ship container cable_car subway aircraft wheelchair scooter drone" speed="13.89" length="0.10" shape="1148.10,550.35 1148.10,550.35"/>
    </edge>
    <edge id=":1959016098_0" function="internal">
        <lane id=":1959016098_0_0" index="0" disallow="pedestrian tram rail_urban rail rail_electric rail_fast ship container cable_car subway aircraft wheelchair scooter drone" speed="13.89" length="4.00" shape="840.68,666.88 844.68,666.97"/>
    </edge>
    <edge id=":1959016105_0" function="internal">
        <lane id=":1959016105_0_0" index="0" disallow="pedestrian tram rail_urban rail rail_electric rail_fast ship container cable_car subway aircraft wheelchair scooter drone" speed="13.89" length="4.00" shape="788.60,690.14 791.46,687.34"/>
    </edge>
    <edge id=":1959016109_0" function="internal">
        <lane id=":1959016109_0_0" index="0" disallow="pedestrian tram rail_urban rail rail_electric rail_fast ship container cable_car subway aircraft wheelchair scooter drone" speed="13.89" length="0.30" shape="790.99,700.16 790.73,700.30"/>
    </edge>
    <edge id=":1959016132_0" function="internal">
        <lane id=":1959016132_0_0" index="0" disallow="pedestrian tram rail_urban rail rail_electric rail_fast ship container cable_car subway aircraft wheelchair scooter drone" speed="13.89" length="4.00" shape="342.85,882.55 341.23,878.89"/>
    </edge>
    <edge id=":1959016132_1" function="internal">
        <lane id=":1959016132_1_0" index="0" disallow="pedestrian tram rail_urban rail rail_electric rail_fast ship container cable_car subway aircraft wheelchair scooter drone" speed="13.89" length="4.00" shape="344.15,877.59 345.77,881.25"/>
    </edge>
    <edge id=":1959016140_0" function="internal">
        <lane id=":1959016140_0_0" index="0" disallow="pedestrian tram rail_urban rail rail_electric rail_fast ship container cable_car subway aircraft wheelchair scooter drone" speed="13.89" length="4.00" shape="382.55,890.57 378.92,892.24"/>
    </edge>
    <edge id=":1959016140_1" function="internal">
        <lane id=":1959016140_1_0" index="0" disallow="pedestrian tram rail_urban rail rail_electric rail_fast ship container cable_car subway aircraft wheelchair scooter drone" speed="13.89" length="4.00" shape="377.58,889.33 381.22,887.66"/>
    </edge>
    <edge id=":1959016163_0" function="internal">
        <lane id=":1959016163_0_0" index="0" disallow="pedestrian tram rail_urban rail rail_electric rail_fast ship container cable_car subway aircraft wheelchair scooter drone" speed="13.89" length="3.99" shape="332.76,913.18 329.12,914.81"/>
    </edge>
    <edge id=":1959016163_1" function="internal">
        <lane id=":1959016163_1_0" index="0" disallow="pedestrian tram rail_urban rail rail_electric rail_fast ship container cable_car subway aircraft wheelchair scooter drone" speed="13.89" length="4.01" shape="327.80,911.90 331.45,910.25"/>
    </edge>
    <edge id=":1959016176_0" function="internal">
        <lane id=":1959016176_0_0" index="0" disallow="pedestrian tram rail_urban rail rail_electric rail_fast ship container cable_car subway aircraft wheelchair scooter drone" speed="13.89" length="0.10" shape="60.28,1004.11 60.24,1004.03"/>
    </edge>
    <edge id=":1959016176_1" function="internal">
        <lane id=":1959016176_1_0" index="0" disallow="pedestrian tram rail_urban rail rail_electric rail_fast ship container cable_car subway aircraft wheelchair scooter drone" speed="13.89" length="0.10" shape="63.16,1002.71 63.12,1002.63"/>
    </edge>
    <edge id=":1959016233_0" function="internal">
        <lane id=":1959016233_0_0" index="0" disallow="pedestrian tram rail_urban rail rail_electric rail_fast ship container cable_car subway aircraft wheelchair scooter drone" speed="13.89" length="3.92" shape="76.94,1042.03 75.29,1038.48"/>
    </edge>
    <edge id=":1959016233_1" function="internal">
        <lane id=":1959016233_1_0" index="0" disallow="pedestrian tram rail_urban rail rail_electric rail_fast ship container cable_car subway aircraft wheelchair scooter drone" speed="13.89" length="4.01" shape="78.17,1037.09 79.86,1040.72"/>
    </edge>
    <edge id=":1959016236_0" function="internal">
        <lane id=":1959016236_0_0" index="0" disallow="pedestrian tram rail_urban rail rail_electric rail_fast ship container cable_car subway aircraft wheelchair scooter drone" speed="13.89" length="0.29" shape="29.80,1042.68 30.03,1042.51"/>
    </edge>
    <edge id=":2114874854_0" function="internal">
        <lane id=":2114874854_0_0" index="0" disallow="pedestrian tram rail_urban rail rail_electric rail_fast ship container cable_car subway aircraft wheelchair scooter drone" speed="6.69" length="9.31" shape="2238.72,579.49 2237.08,577.65 2235.18,576.78 2233.03,576.87 2230.64,577.91"/>
    </edge>
    <edge id=":2114874854_1" function="internal">
        <lane id=":2114874854_1_0" index="0" disallow="pedestrian tram rail_urban rail rail_electric rail_fast ship container cable_car subway aircraft wheelchair scooter drone" speed="13.89" length="14.45" shape="2238.72,579.49 2230.61,567.53"/>
    </edge>
    <edge id=":2114874854_2" function="internal">
        <lane id=":2114874854_2_0" index="0" disallow="pedestrian tram rail_urban rail rail_electric rail_fast ship container cable_car subway aircraft wheelchair scooter drone" speed="8.12" length="3.84" shape="2238.72,579.49 2237.09,576.02"/>
    </edge>
    <edge id=":2114874854_3" function="internal">
        <lane id=":2114874854_3_0" index="0" disallow="pedestrian tram rail_urban rail rail_electric rail_fast ship container cable_car subway aircraft wheelchair scooter drone" speed="3.65" length="1.44" shape="2238.72,579.49 2238.73,578.04"/>
    </edge>
    <edge id=":2114874854_16" function="internal">
        <lane id=":2114874854_16_0" index="0" disallow="pedestrian tram rail_urban rail rail_electric rail_fast ship container cable_car subway aircraft wheelchair scooter drone" speed="8.12" length="10.36" shape="2237.09,576.02 2236.94,572.80 2238.28,569.85 2241.10,567.15"/>
    </edge>
    <edge id=":2114874854_17" function="internal">
        <lane id=":2114874854_17_0" index="0" disallow="pedestrian tram rail_urban rail rail_electric rail_fast ship container cable_car subway aircraft wheelchair scooter drone" speed="3.65" length="3.23" shape="2238.73,578.04 2239.18,577.27 2240.07,577.16 2241.39,577.72"/>
    </edge>
    <edge id=":2114874854_4" function="internal">
        <lane id=":2114874854_4_0" index="0" disallow="pedestrian tram rail_urban rail rail_electric rail_fast ship container cable_car subway aircraft wheelchair scooter drone" speed="6.65" length="9.19" shape="2242.98,569.75 2241.14,571.50 2240.26,573.41 2240.35,575.49 2241.39,577.72"/>
    </edge>
    <edge id=":2114874854_5" function="internal">
        <lane id=":2114874854_5_0" index="0" disallow="pedestrian tram rail_urban rail rail_electric rail_fast ship container cable_car subway aircraft wheelchair scooter drone" speed="9.72" length="14.79" shape="2242.98,569.75 2230.64,577.91"/>
    </edge>
    <edge id=":2114874854_6" function="internal">
        <lane id=":2114874854_6_0" index="0" disallow="pedestrian tram rail_urban rail rail_electric rail_fast ship container cable_car subway aircraft wheelchair scooter drone" speed="8.01" length="14.38" shape="2242.98,569.75 2239.50,571.55 2236.28,571.79 2233.32,570.45 2230.61,567.53"/>
    </edge>
    <edge id=":2114874854_7" function="internal">
        <lane id=":2114874854_7_0" index="0" disallow="pedestrian tram rail_urban rail rail_electric rail_fast ship container cable_car subway aircraft wheelchair scooter drone" speed="3.65" length="4.67" shape="2242.98,569.75 2241.54,569.80 2240.74,569.39 2240.60,568.51 2241.10,567.15"/>
    </edge>
    <edge id=":2114874854_8" function="internal">
        <lane id=":2114874854_8_0" index="0" disallow="pedestrian tram rail_urban rail rail_electric rail_fast ship container cable_car subway aircraft wheelchair scooter drone" speed="6.52" length="9.16" shape="2233.23,565.70 2234.96,567.57 2236.85,568.43 2238.90,568.30 2241.10,567.15"/>
    </edge>
    <edge id=":2114874854_9" function="internal">
        <lane id=":2114874854_9_0" index="0" disallow="pedestrian tram rail_urban rail rail_electric rail_fast ship container cable_car subway aircraft wheelchair scooter drone" speed="13.89" length="14.53" shape="2233.23,565.70 2241.39,577.72"/>
    </edge>
    <edge id=":2114874854_10" function="internal">
        <lane id=":2114874854_10_0" index="0" disallow="pedestrian tram rail_urban rail rail_electric rail_fast ship container cable_car subway aircraft wheelchair scooter drone" speed="7.89" length="4.21" shape="2233.23,565.70 2235.03,569.27 2235.04,569.49"/>
    </edge>
    <edge id=":2114874854_11" function="internal">
        <lane id=":2114874854_11_0" index="0" disallow="pedestrian tram rail_urban rail rail_electric rail_fast ship container cable_car subway aircraft wheelchair scooter drone" speed="3.65" length="1.44" shape="2233.23,565.70 2233.26,567.14"/>
    </edge>
    <edge id=":2114874854_18" function="internal">
        <lane id=":2114874854_18_0" index="0" disallow="pedestrian tram rail_urban rail rail_electric rail_fast ship container cable_car subway aircraft wheelchair scooter drone" speed="7.89" length="10.23" shape="2235.04,569.49 2235.19,572.50 2233.73,575.37 2230.64,577.91"/>
    </edge>
    <edge id=":2114874854_19" function="internal">
        <lane id=":2114874854_19_0" index="0" disallow="pedestrian tram rail_urban rail rail_electric rail_fast ship container cable_car subway aircraft wheelchair scooter drone" speed="3.65" length="3.23" shape="2233.26,567.14 2232.83,567.93 2231.95,568.06 2230.61,567.53"/>
    </edge>
    <edge id=":2114874854_12" function="internal">